/*--------------------------------*- C++ -*----------------------------------*\
| =========                 |                                                 |
| \\      /  F ield         | OpenFOAM: The Open Source CFD Toolbox           |
|  \\    /   O peration     | Version:  v2012                                 |
|   \\  /    A nd           | Website:  www.openfoam.com                      |
|    \\/     M anipulation  |                                                 |
\*---------------------------------------------------------------------------*/
FoamFile
{
    version     2.0;
    format      ascii;
    class       volTensorField;
    location    "0/beamthree";
    object      refRM;
}
// * * * * * * * * * * * * * * * * * * * * * * * * * * * * * * * * * * * * * //

dimensions      [0 0 0 0 0 0 0];


internalField   uniform (0.904022 0.276102 -0.326362 -0.276102 0.959962 0.0473257 0.326362 0.0473257 0.944059);

boundaryField
{
    left
    {
        type            calculated;
        value           uniform (0.904022 0.276102 -0.326362 -0.276102 0.959962 0.0473257 0.326362 0.0473257 0.944059);
    }
    right
    {
        type            calculated;
        value           uniform (0.904022 0.276102 -0.326362 -0.276102 0.959962 0.0473257 0.326362 0.0473257 0.944059);
    }
    beam
    {
        type            empty;
    }
}


// ************************************************************************* //
