/*--------------------------------*- C++ -*----------------------------------*\
  =========                 |
  \\      /  F ield         | OpenFOAM: The Open Source CFD Toolbox
   \\    /   O peration     | Website:  https://openfoam.org
    \\  /    A nd           | Version:  dev
     \\/     M anipulation  |
\*---------------------------------------------------------------------------*/
FoamFile
{
    version     2.0;
    format      ascii;
    class       dictionary;
    object      motionProperties;
}
// * * * * * * * * * * * * * * * * * * * * * * * * * * * * * * * * * * * * * //

dynamicFvMesh       dynamicMotionSolverFvMesh;

motionSolverLibs    ("libfiniteVolumeBeamMooring");

motionSolver        sixDoFRigidBodyMotionFvBeam;

sixDoFRigidBodyMotionFvBeamCoeffs
{
    patches         (floatingObject);
    innerDistance   0.05;
    outerDistance   0.35;

	centreOfMass    (0.0 0.0 -0.016);

	// Cuboid dimensions
	Lx              0.2;
	Ly              0.2;
	Lz              0.132;

	// Density of the solid
	//rhoSolid        500;

	// Cuboid mass
	mass            3.148 ; //3.148; // #eval{ $rhoSolid*$Lx*$Ly*$Lz };

	// Cuboid moment of inertia about the centre of mass
	momentOfInertia ( 0.015 0.015 0.021 );

    	report          on;

    	accelerationRelaxation 0.8;
    	//accelerationDamping   0.95;

    	solver
    	{
        	type FvBeamNewmark;
    	}

    constraints
    {
	     //translation contrained on a plane around CoR
        fixedPlane
        {
            sixDoFRigidBodyMotionFvBeamConstraint plane;
            normal (0 1 0);
        }

	// rotation constraint
        fixedAxis
        {
            sixDoFRigidBodyMotionFvBeamConstraint axis;
            axis (0 1 0);
        }
    }

	restraints
	{
		beam1
	{
		sixDoFRigidBodyMotionFvBeamRestraint finiteVolumeBeam;

		attachmentPatch	right;

		beamRegion 	"beamone";

		refAttachmentPt (-0.1 -0.1 -0.0786);
	}

	}

}


// ************************************************************************* //
