/*--------------------------------*- C++ -*----------------------------------*\
| =========                 |                                                 |
| \\      /  F ield         | foam-extend: Open Source CFD                    |
|  \\    /   O peration     | Version:     4.0                                |
|   \\  /    A nd           | Web:         http://www.foam-extend.org         |
|    \\/     M anipulation  |                                                 |
\*---------------------------------------------------------------------------*/
FoamFile
{
    version     2.0;
    format      ascii;
    class       dictionary;
    location    "constant";
    object      beamProperties;
}
// * * * * * * * * * * * * * * * * * * * * * * * * * * * * * * * * * * * * * //

beamModel coupledTotalLagNewtonRaphsonBeam;

nBeams 1;
R R [0 1 0 0 0 0 0] 1.828E-03; //5.70732;
L L [0 1 0 0 0 0 0] 1.45;
nSegments 60; //change this to 20


"coupledTotalLagNewtonRaphsonBeamCoeffs"
{
    E E [1 -1 -2 0 0 0 0] 1825834.598604678;
    G G [1 -1 -2 0 0 0 0] 912917.299302339;
    rho rho [1 -3 0 0 0 0 0] 5782.1088027129;

    rhoFluid rhoFluid [1 -3 0 0 0 0 0] 1000;

    groundContactActive true;
    groundZ -0.5;
    gStiffness 1E03;
    gDamping 1.0;
    nSegments 60;

    startPatchName left;
    endPatchName right;

    nCorrectors 200;
    convergenceTol 1e-10;

    debug yes;

    updatedLagrangian no;

    //   ibrahimovicCase true;

    objectiveInterpolation false;

    steadyState false;

    // Newmark-beta integration scheme
    newmark false;

    // Flag to activate drag contribution
    // steadyState flag should also be false along with this flag
    // else drag forces will be zero
    dragActive true;

    // Coefficient of drag in normal and tangential directions
    // Default value if not specified is 1.0 for both
    Cdn 1.6;
    Cdt 0.05;
}



// ************************************************************************* //
